// -*- C++ -*-
// File generated by PyFoam - sorry for the ugliness

FoamFile
{
 version 2.0;
 format ascii; 	
 class volScalarField; 	
 location "0"; 	
 object nut; 	
}

dimensions [ 0 2 -1 0 0 0 0 ];

internalField uniform 1.0; 	

boundaryField
{
  mitis
  {
        type	zeroGradient;
	     
    }

  neigette
  {
        type	zeroGradient;
  }

  downstream
  {
        type	zeroGradient;
   }
  
  top
  {
      type	symmetryPlane;
  }
   
  "wall_.*"
  {
      type  zeroGradient;
  }
  
  /*"wall_.*"
  {
      type  nutUWallFunction;
    	value	$internalField;
  }*/
  
 }
